OFILES=ata.o atapi.o dma.o init.o pio.o util.o
NAME=ata
OUTPUT=$(NAME).m
DEPTHDOTS=../../../../
MODPATH=arch/x86_common/drivers/

include ../../../../drivers/submake.inc
